# =====================
# | Layers parameters |
# =====================

# Parameters for layers package
 &LAYERS_PARM01
 layers_bounds(1:50,1)=0., 0.163265306122449, 0.326530612244898, 0.489795918367347, 0.653061224489796, 0.81632653061224,
 0.979591836734694, 1.14285714285714, 1.30612244897959, 1.46938775510204, 1.63265306122449, 1.79591836734694, 1.95918367346939, 
2.12244897959184, 2.28571428571429, 2.44897959183673, 2.61224489795918, 2.77551020408163, 2.93877551020408, 3.10204081632653, 
3.26530612244898, 3.42857142857143, 3.59183673469388, 3.75510204081633, 3.91836734693878, 4.08163265306123, 4.24489795918367, 
4.40816326530612, 4.57142857142857, 4.73469387755102, 4.89795918367347, 5.06122448979592, 5.22448979591837, 5.38775510204082, 
5.55102040816327, 5.71428571428571, 5.87755102040816, 6.04081632653061, 6.20408163265306, 6.36734693877551, 6.53061224489796, 
6.69387755102041, 6.85714285714286, 7.0204081632653, 7.18367346938776, 7.34693877551020, 7.51020408163265, 7.67346938775510, 
7.83673469387755, 8.,
 layers_name(1)='TH',
 layers_bolus(1)=.FALSE.,
 &

